Circuit: * C:\Users\jarlb\OneDrive\Documenten\Homework\EE2C11\L\V1\Draft1.asc

Warning: Pd = 0 is less than W.
Warning: Ps = 0 is less than W.
.step vgs=0.6
.step vgs=0.9
.step vgs=1.2
.step vgs=1.5
.step vgs=1.8

Date: Thu Oct 07 09:48:59 2021
Total elapsed time: 0.583 seconds.

tnom = 27
temp = 27
method = trap
totiter = 185
traniter = 0
tranpoints = 0
accept = 0
rejected = 0
matrix size = 4
fillins = 0
solver = Normal
Matrix Compiler1: 118 bytes object code size  0.1/0.1/[0.1]
Matrix Compiler2: 216 bytes object code size  0.1/0.1/[0.1]

