Circuit: * C:\Users\jarlb\OneDrive\Documenten\GitHub\mosfet_parameter_extraction\Vt0\V1\Draft1.asc

Warning: Pd = 0 is less than W.
Warning: Ps = 0 is less than W.

Date: Fri Oct 08 10:15:23 2021
Total elapsed time: 0.059 seconds.

tnom = 27
temp = 27
method = trap
totiter = 185
traniter = 0
tranpoints = 0
accept = 0
rejected = 0
matrix size = 4
fillins = 0
solver = Normal
Matrix Compiler1: 118 bytes object code size  0.0/0.0/[0.0]
Matrix Compiler2: off  [0.0]/0.0/0.0

