Circuit: * C:\Users\jarlb\OneDrive\Documenten\Homework\EE2C11\Vt0\V1\Draft1.asc

Warning: Pd = 0 is less than W.
Warning: Ps = 0 is less than W.

Date: Thu Oct 07 12:57:02 2021
Total elapsed time: 0.157 seconds.

tnom = 27
temp = 27
method = trap
totiter = 185
traniter = 0
tranpoints = 0
accept = 0
rejected = 0
matrix size = 4
fillins = 0
solver = Normal
Matrix Compiler1: 118 bytes object code size  0.2/0.1/[0.1]
Matrix Compiler2: 216 bytes object code size  0.1/0.1/[0.1]

